@<TRIPOS>MOLECULE
PFBS_ani 
17 16 0 0 0
SMALL
USER_CHARGES
#CGenFF output mol2 file
@<TRIPOS>ATOM
1	S1    -2.1366    -0.7035    -0.3567	S.3	1	UNL1     0.9290
2	F1    -0.4707     1.8316    -1.0186	F	1	UNL1    -0.1470
3	F2     0.5998     1.8991     0.8687	F	1	UNL1    -0.1470
4	F3    -0.6143    -0.3985     1.7062	F	1	UNL1    -0.1280
5	F4    -1.8799     1.2957     1.2314	F	1	UNL1    -0.1280
6	F5     0.7124    -0.5316    -1.6698	F	1	UNL1    -0.1470
7	F6     2.0552     1.1097    -1.2101	F	1	UNL1    -0.1470
8	F7     1.1709    -1.5602     0.8975	F	1	UNL1    -0.1350
9	F8     2.9607    -1.3092    -0.3238	F	1	UNL1    -0.1350
10	F9     2.5293     0.1037     1.2716	F	1	UNL1    -0.1350
11	O1    -1.2198    -1.7018    -0.9017	O.co2	1	UNL1    -0.5500
12	O2    -3.1400    -1.2223     0.5693	O.2	1	UNL1    -0.5500
13	O3    -2.6583     0.2437    -1.3410	O.2	1	UNL1    -0.5500
14	C1     0.0474     1.0383    -0.0381	C.3	1	UNL1     0.3350
15	C2    -1.1009     0.3266     0.6637	C.3	1	UNL1    -0.0580
16	C3     1.1793     0.2264    -0.6472	C.3	1	UNL1     0.3380
17	C4     1.9655    -0.6478     0.2987	C.3	1	UNL1     0.3550
@<TRIPOS>BOND
1	1	11	1
2	1	12	2
3	1	13	2
4	1	15	1
5	2	14	1
6	3	14	1
7	4	15	1
8	5	15	1
9	6	16	1
10	7	16	1
11	8	17	1
12	9	17	1
13	10	17	1
14	14	15	1
15	14	16	1
16	16	17	1
